src/case15da.py
from numpy import *

def case15da():
    ppc = {"version": '2'}
    ppc["baseMVA"] = 1.0
    ppc["bus"] = array([
        [1, 3, 0, 0, 0, 0, 1, 1, 0, 11, 1, 1, 1],
        [2, 1, 0.0441, 0.044991, 0, 0, 1, 1, 0, 11, 1, 1.1, 0.9],
        [3, 1, 0.07, 0.0714143, 0, 0, 1, 1, 0, 11, 1, 1.1, 0.9],
        [4, 1, 0.14, 0.1428286, 0, 0, 1, 1, 0, 11, 1, 1.1, 0.9],
        [5, 1, 0.044, 0.044991, 0, 0, 1, 1, 0, 11, 1, 1.1, 0.9],
        [6, 1, 0.14, 0.1428286, 0, 0, 1, 1, 0, 11, 1, 1.1, 0.9],
        [7, 1, 0.14, 0.1428286, 0, 0, 1, 1, 0, 11, 1, 1.1, 0.9],
        [8, 1, 0.07, 0.0714143, 0, 0, 1, 1, 0, 11, 1, 1.1, 0.9],
        [9, 1, 0.07, 0.0714143, 0, 0, 1, 1, 0, 11, 1, 1.1, 0.9],
        [10, 1, 0.0441, 0.044991, 0, 0, 1, 1, 0, 11, 1, 1.1, 0.9],
        [11, 1, 0.14, 0.1428286, 0, 0, 1, 1, 0, 11, 1, 1.1, 0.9],
        [12, 1, 0.07, 0.0714143, 0, 0, 1, 1, 0, 11, 1, 1.1, 0.9],
        [13, 1, 0.0441, 0.044991, 0, 0, 1, 1, 0, 11, 1, 1.1, 0.9],
        [14, 1, 0.07, 0.0714143, 0, 0, 1, 1, 0, 11, 1, 1.1, 0.9],
        [15, 1, 0.14, 0.1428286, 0, 0, 1, 1, 0, 11, 1, 1.1, 0.9],
    ])

    # 人为地调小功率
    # ppc["bus"] = array([
    #     [1, 3, 0, 0, 0, 0, 1, 1, 0, 11, 1, 1, 1],
    #     [2, 1, 0.00441, 0.0044991, 0, 0, 1, 1, 0, 11, 1, 1.1, 0.9],
    #     [3, 1, 0.007, 0.00714143, 0, 0, 1, 1, 0, 11, 1, 1.1, 0.9],
    #     [4, 1, 0.014, 0.01428286, 0, 0, 1, 1, 0, 11, 1, 1.1, 0.9],
    #     [5, 1, 0.0044, 0.0044991, 0, 0, 1, 1, 0, 11, 1, 1.1, 0.9],
    #     [6, 1, 0.014, 0.01428286, 0, 0, 1, 1, 0, 11, 1, 1.1, 0.9],
    #     [7, 1, 0.014, 0.01428286, 0, 0, 1, 1, 0, 11, 1, 1.1, 0.9],
    #     [8, 1, 0.007, 0.00714143, 0, 0, 1, 1, 0, 11, 1, 1.1, 0.9],
    #     [9, 1, 0.007, 0.00714143, 0, 0, 1, 1, 0, 11, 1, 1.1, 0.9],
    #     [10, 1, 0.00441, 0.0044991, 0, 0, 1, 1, 0, 11, 1, 1.1, 0.9],
    #     [11, 1, 0.014, 0.01428286, 0, 0, 1, 1, 0, 11, 1, 1.1, 0.9],
    #     [12, 1, 0.007, 0.00714143, 0, 0, 1, 1, 0, 11, 1, 1.1, 0.9],
    #     [13, 1, 0.00441, 0.0044991, 0, 0, 1, 1, 0, 11, 1, 1.1, 0.9],
    #     [14, 1, 0.007, 0.00714143, 0, 0, 1, 1, 0, 11, 1, 1.1, 0.9],
    #     [15, 1, 0.014, 0.01428286, 0, 0, 1, 1, 0, 11, 1, 1.1, 0.9],
    # ])

    ppc["gen"] = array([
        [1,	0,	0,	10,	-10,	1,	100,	1,	10,	0,	0,	0,	0,	0,	0,	0,	0,	0,	0,	0,	0]
    ])

    ppc["branch"] = array([
         [1, 2, 0.0112, 0.0109, 0, 9900, 0, 0, 0, 0, 1, -360, 360],
         [2, 3, 0.0097, 0.0095, 0, 9900, 0, 0, 0, 0, 1, -360, 360],
         [3, 4, 0.007, 0.0068, 0, 9900, 0, 0, 0, 0, 1, -360, 360],
         [4, 5, 0.0126, 0.0085, 0, 9900, 0, 0, 0, 0, 1, -360, 360],
         [2, 9, 0.0166, 0.0112, 0, 9900, 0, 0, 0, 0, 1, -360, 360],
         [9, 10, 0.0139, 0.0094, 0, 9900, 0, 0, 0, 0, 1, -360, 360],
         [2, 6, 0.0211, 0.0143, 0, 9900, 0, 0, 0, 0, 1, -360, 360],
         [6, 7, 0.009, 0.0061, 0, 9900, 0, 0, 0, 0, 1, -360, 360],
         [6, 8, 0.0103, 0.007, 0, 9900, 0, 0, 0, 0, 1, -360, 360],
         [3, 11, 0.0148, 0.01, 0, 9900, 0, 0, 0, 0, 1, -360, 360],
         [11, 12, 0.0202, 0.0136, 0, 9900, 0, 0, 0, 0, 1, -360, 360],
         [12, 13, 0.0166, 0.0112, 0, 9900, 0, 0, 0, 0, 1, -360, 360],
         [4, 14, 0.0184, 0.0124, 0, 9900, 0, 0, 0, 0, 1, -360, 360],
         [4, 15, 0.0099, 0.0067, 0, 9900, 0, 0, 0, 0, 1, -360, 360]
         ])

    ppc["gencost"] = array([
        [2,	0,	0,	2,	10,	0]
    ])

    return ppc